Version 4
SHEET 1 2632 1940
WIRE -96 -512 -192 -512
WIRE 32 -512 -96 -512
WIRE 64 -512 32 -512
WIRE 160 -512 144 -512
WIRE 240 -512 160 -512
WIRE 288 -512 240 -512
WIRE -192 -496 -192 -512
WIRE 32 -496 32 -512
WIRE 160 -496 160 -512
WIRE 288 -496 288 -512
WIRE 288 -416 288 -432
WIRE -192 -400 -192 -416
WIRE -64 -400 -192 -400
WIRE 32 -384 32 -416
WIRE 48 -384 32 -384
WIRE 64 -384 48 -384
WIRE 144 -384 128 -384
WIRE 160 -384 160 -416
WIRE 160 -384 144 -384
WIRE -192 -368 -192 -400
WIRE 48 -336 48 -384
WIRE 144 -336 144 -384
WIRE 240 -336 240 -512
WIRE -192 -272 -192 -288
WIRE -64 -272 -64 -400
WIRE -48 -272 -64 -272
WIRE 368 -272 336 -272
WIRE 432 -272 368 -272
WIRE 480 -272 432 -272
WIRE 368 -256 368 -272
WIRE 480 -256 480 -272
WIRE 1024 -192 800 -192
WIRE -64 -176 -160 -176
WIRE -48 -176 -64 -176
WIRE 368 -176 368 -192
WIRE 368 -176 336 -176
WIRE 480 -176 480 -192
WIRE -160 -160 -160 -176
WIRE 800 -96 800 -192
WIRE -160 -80 -160 -96
WIRE -64 -80 -64 -176
WIRE -48 -80 -64 -80
WIRE 752 -80 336 -80
WIRE 368 -64 368 -176
WIRE 1104 -32 1104 -160
WIRE 1216 -32 1104 -32
WIRE 1328 -32 1296 -32
WIRE 1360 -32 1328 -32
WIRE 1456 -32 1440 -32
WIRE 1552 -32 1456 -32
WIRE 1600 -32 1552 -32
WIRE 1680 -32 1600 -32
WIRE 1872 -32 1680 -32
WIRE 2016 -32 1872 -32
WIRE 2176 -32 2112 -32
WIRE 2208 -32 2176 -32
WIRE 2240 -32 2208 -32
WIRE 1104 -16 1104 -32
WIRE 1104 -16 800 -16
WIRE 2240 0 2240 -32
WIRE -176 16 -240 16
WIRE -48 16 -176 16
WIRE 368 16 368 0
WIRE 368 16 336 16
WIRE 1104 16 1104 -16
WIRE 1552 32 1552 -32
WIRE -64 112 -64 -80
WIRE -48 112 -64 112
WIRE 1024 112 336 112
WIRE -384 128 -384 0
WIRE 2032 160 2032 16
WIRE -160 208 -176 208
WIRE -48 208 -80 208
WIRE 1328 208 1328 -32
WIRE 1328 208 336 208
WIRE 1872 224 1872 -32
WIRE 1904 224 1872 224
WIRE 2176 224 2176 -32
WIRE 2176 224 2160 224
WIRE -160 304 -176 304
WIRE -48 304 -80 304
WIRE 1456 304 1456 -32
WIRE 1456 304 336 304
WIRE 2176 320 2176 224
WIRE 2176 320 2160 320
WIRE -144 400 -160 400
WIRE -48 400 -80 400
WIRE 528 400 336 400
WIRE 576 400 528 400
WIRE 1680 400 1680 -32
WIRE 1680 400 656 400
WIRE 528 416 528 400
WIRE 2032 432 2032 384
WIRE -208 496 -224 496
WIRE -96 496 -144 496
WIRE -48 496 -96 496
WIRE -160 592 -224 592
WIRE -48 592 -160 592
WIRE 80 672 80 656
WIRE 208 672 208 656
WIRE 80 768 80 752
FLAG 528 496 0
FLAG 1552 96 0
FLAG 1104 -288 VIN_FILT
FLAG 752 -32 0
FLAG -800 -240 0
FLAG -800 -320 VIN_FILT
FLAG -800 -32 0
FLAG 2240 80 0
FLAG -800 224 0
FLAG -800 144 VCTRL1
FLAG 1104 144 0
FLAG 368 16 0
FLAG 208 672 0
FLAG 80 768 0
FLAG -224 496 0
FLAG -160 400 0
FLAG -160 -80 0
FLAG -192 -272 0
FLAG 288 -416 0
FLAG 480 -176 0
FLAG 432 -272 INTVcc
FLAG -240 208 0
FLAG -240 304 0
FLAG -96 -512 VHK
FLAG -160 592 INTVcc
FLAG -176 16 VCTRL1
FLAG -96 496 VSS
FLAG 2032 432 0
FLAG 2208 -32 VBAT
FLAG -384 208 0
FLAG -384 -80 VSOLAR
FLAG -800 -112 VHK
FLAG 1600 -32 VOUT
SYMBOL ind 1200 -16 R270
WINDOW 0 32 56 VTop 2
WINDOW 3 5 56 VBottom 2
SYMATTR InstName L1
SYMATTR Value {Lo}
SYMBOL cap 1536 32 R0
SYMATTR InstName C4
SYMATTR Value {Co}
SYMBOL res 512 400 R0
SYMATTR InstName R4
SYMATTR Value {RFB1}
SYMBOL res 672 384 R90
WINDOW 0 0 56 VBottom 2
WINDOW 3 32 56 VTop 2
SYMATTR InstName R5
SYMATTR Value {RFB2}
SYMBOL res 1456 -48 R90
WINDOW 0 0 56 VBottom 2
WINDOW 3 32 56 VTop 2
SYMATTR InstName R6
SYMATTR Value {RSNS}
SYMBOL EPCGaN 1024 -192 R0
SYMATTR InstName U3
SYMATTR Value EPC2010C
SYMBOL e 800 -112 R0
SYMATTR InstName E1
SYMATTR Value 1
SYMBOL voltage -800 -336 R0
WINDOW 123 0 0 Left 2
WINDOW 39 0 0 Left 2
SYMATTR InstName V1
SYMATTR Value PULSE(0 100 1m)
SYMBOL voltage -800 -128 R0
WINDOW 123 0 0 Left 2
WINDOW 39 0 0 Left 2
SYMATTR InstName V2
SYMATTR Value 36
SYMBOL voltage 2240 -16 R0
WINDOW 123 0 0 Left 2
WINDOW 39 0 0 Left 2
SYMATTR InstName V3
SYMATTR Value 28
SYMBOL voltage -800 128 R0
WINDOW 123 0 0 Left 2
WINDOW 39 0 0 Left 2
SYMATTR InstName V4
SYMATTR Value 0.5
SYMBOL EPCGaN 1024 112 R0
SYMATTR InstName U2
SYMATTR Value EPC2010C
SYMBOL PowerProducts\\LT3763 144 160 R0
SYMATTR InstName U4
SYMBOL res 64 656 R0
SYMATTR InstName R12
SYMATTR Value 82.5K
SYMBOL cap -144 480 R90
WINDOW 0 0 32 VBottom 2
WINDOW 3 32 32 VTop 2
SYMATTR InstName C10
SYMATTR Value .01µ
SYMBOL cap -80 384 R90
WINDOW 0 0 32 VBottom 2
WINDOW 3 32 32 VTop 2
WINDOW 39 53 32 VTop 2
SYMATTR InstName C11
SYMATTR Value 4700p
SYMATTR SpiceLine Rser=59K
SYMBOL res -64 288 R90
WINDOW 0 0 56 VBottom 2
WINDOW 3 32 56 VTop 2
SYMATTR InstName R13
SYMATTR Value 50
SYMBOL cap -176 288 R90
WINDOW 0 0 32 VBottom 2
WINDOW 3 32 32 VTop 2
SYMATTR InstName C12
SYMATTR Value .001µ
SYMBOL res -64 192 R90
WINDOW 0 0 56 VBottom 2
WINDOW 3 32 56 VTop 2
SYMATTR InstName R14
SYMATTR Value 50
SYMBOL cap -176 192 R90
WINDOW 0 0 32 VBottom 2
WINDOW 3 32 32 VTop 2
SYMATTR InstName C13
SYMATTR Value .001µ
SYMBOL cap -176 -160 R0
SYMATTR InstName C14
SYMATTR Value .22µ
SYMBOL res 48 -496 R270
WINDOW 0 32 56 VTop 2
WINDOW 3 0 56 VBottom 2
SYMATTR InstName R15
SYMATTR Value 2.5m
SYMBOL res 16 -512 R0
WINDOW 0 37 48 Left 2
SYMATTR InstName R16
SYMATTR Value 1K
SYMBOL res 144 -512 R0
SYMATTR InstName R17
SYMATTR Value 1K
SYMBOL cap 64 -368 R270
WINDOW 0 32 32 VTop 2
WINDOW 3 0 32 VBottom 2
SYMATTR InstName C15
SYMATTR Value 1µ
SYMBOL res -208 -512 R0
SYMATTR InstName R18
SYMATTR Value 84.5K
SYMBOL res -208 -384 R0
SYMATTR InstName R19
SYMATTR Value 15.4K
SYMBOL cap 272 -496 R0
SYMATTR InstName C16
SYMATTR Value 4.7µ
SYMBOL cap 464 -256 R0
SYMATTR InstName C17
SYMATTR Value 4.7µ
SYMBOL schottky 352 -256 R0
SYMATTR InstName D3
SYMATTR Value 1N5819
SYMATTR Description Diode
SYMATTR Type diode
SYMBOL cap 352 -64 R0
SYMATTR InstName C18
SYMATTR Value .22µ
SYMBOL nmos 2112 16 M270
SYMATTR InstName M1
SYMBOL SpecialFunctions\\LTC4357 2032 272 R0
SYMATTR InstName U1
SYMBOL res -400 -96 R0
SYMATTR InstName R1
SYMATTR Value 1k
SYMBOL res -400 112 R0
SYMATTR InstName R2
SYMATTR Value 1k
TEXT -720 592 Left 2 !.param Rt=100k
TEXT -720 616 Left 2 !.param RFB1=10k
TEXT -720 648 Left 2 !.param RFB2={RFB1*(Vo/1.206-1)}
TEXT -712 560 Left 2 !.param Vo=33
TEXT -720 680 Left 2 !.param RSNS=5m
TEXT -720 712 Left 2 !.param Lo=10u
TEXT -720 736 Left 2 !.param CSS=1000p
TEXT 400 248 Left 2 ;route as diff pairs
TEXT -720 768 Left 2 !.param CVc=4.7n
TEXT -720 800 Left 2 !.param RVc=59k
TEXT 1472 240 Left 2 !.param Co=33u
TEXT -832 824 Left 2 !.tran 2m startup uic
TEXT 432 -416 Left 2 !.IC V(INTVcc)=5
TEXT -400 488 Left 2 !.IC V(VSS)=0
TEXT 2416 48 Left 2 ;8 X 3.6 - 4.2 V cell
TEXT 1744 -120 Left 2 !.IC V(VOUT)=0
