[Format]      =  4.0
[Frequency]   =  400000
[Precision]   =  1e-008
[MinAngle]    =  30
[Depth]       =  18
[LengthUnits] =  millimeters
[ProblemType] =  planar
[Coordinates] =  cartesian
[ACSolver]    =  0
[PrevSoln]    =  ""
[Comment]     =  "Add comments here."
[PointProps]   = 0
[BdryProps]   = 2
  <BeginBdry>
    <BdryName> = "A=0"
    <BdryType> = 0
    <A_0> = 0
    <A_1> = 0
    <A_2> = 0
    <Phi> = 0
    <c0> = 0
    <c0i> = 0
    <c1> = 0
    <c1i> = 0
    <Mu_ssd> = 0
    <Sigma_ssd> = 0
  <EndBdry>
  <BeginBdry>
    <BdryName> = "skin_depth"
    <BdryType> = 1
    <A_0> = 0
    <A_1> = 0
    <A_2> = 0
    <Phi> = 0
    <c0> = 0
    <c0i> = 0
    <c1> = 0
    <c1i> = 0
    <Mu_ssd> = 1
    <Sigma_ssd> = 1
  <EndBdry>
[BlockProps]  = 7
  <BeginBlock>
    <BlockName> = "Air"
    <Mu_x> = 1
    <Mu_y> = 1
    <H_c> = 0
    <H_cAngle> = 0
    <J_re> = 0
    <J_im> = 0
    <Sigma> = 0
    <d_lam> = 0
    <Phi_h> = 0
    <Phi_hx> = 0
    <Phi_hy> = 0
    <LamType> = 0
    <LamFill> = 1
    <NStrands> = 0
    <WireD> = 0
    <BHPoints> = 0
  <EndBlock>
  <BeginBlock>
    <BlockName> = "18 AWG"
    <Mu_x> = 1
    <Mu_y> = 1
    <H_c> = 0
    <H_cAngle> = 0
    <J_re> = 0
    <J_im> = 0
    <Sigma> = 58
    <d_lam> = 0
    <Phi_h> = 0
    <Phi_hx> = 0
    <Phi_hy> = 0
    <LamType> = 6
    <LamFill> = 1
    <NStrands> = 1
    <WireD> = 1.0239652968433499
    <BHPoints> = 0
  <EndBlock>
  <BeginBlock>
    <BlockName> = "3C92"
    <Mu_x> = 5000
    <Mu_y> = 5000
    <H_c> = 0
    <H_cAngle> = 0
    <J_re> = 0
    <J_im> = 0
    <Sigma> = 0
    <d_lam> = 0
    <Phi_h> = 0
    <Phi_hx> = 0
    <Phi_hy> = 0
    <LamType> = 0
    <LamFill> = 1
    <NStrands> = 0
    <WireD> = 0
    <BHPoints> = 5
      0	0
      0.25	25
      0.34999999999999998	50
      0.40999999999999998	400
      0.46000000000000002	1200
  <EndBlock>
  <BeginBlock>
    <BlockName> = "Copper"
    <Mu_x> = 1
    <Mu_y> = 1
    <H_c> = 0
    <H_cAngle> = 0
    <J_re> = 0
    <J_im> = 0
    <Sigma> = 58
    <d_lam> = 0
    <Phi_h> = 0
    <Phi_hx> = 0
    <Phi_hy> = 0
    <LamType> = 0
    <LamFill> = 1
    <NStrands> = 0
    <WireD> = 0
    <BHPoints> = 0
  <EndBlock>
  <BeginBlock>
    <BlockName> = "N87"
    <Mu_x> = 1
    <Mu_y> = 1
    <H_c> = 0
    <H_cAngle> = 0
    <J_re> = 0
    <J_im> = 0
    <Sigma> = 0
    <d_lam> = 0
    <Phi_h> = 0
    <Phi_hx> = 0
    <Phi_hy> = 0
    <LamType> = 0
    <LamFill> = 1
    <NStrands> = 0
    <WireD> = 0
    <BHPoints> = 7
      0	0
      0.10000000000000001	25
      0.20000000000000001	50
      0.29999999999999999	75
      0.34999999999999998	120
      0.37	400
      0.38	800
  <EndBlock>
  <BeginBlock>
    <BlockName> = "3C95"
    <Mu_x> = 1
    <Mu_y> = 1
    <H_c> = 0
    <H_cAngle> = 0
    <J_re> = 0
    <J_im> = 0
    <Sigma> = 0
    <d_lam> = 0
    <Phi_h> = 0
    <Phi_hx> = 0
    <Phi_hy> = 0
    <LamType> = 0
    <LamFill> = 1
    <NStrands> = 0
    <WireD> = 0
    <BHPoints> = 5
      0	0
      0.25	25
      0.34999999999999998	50
      0.39000000000000001	150
      0.40000000000000002	250
  <EndBlock>
  <BeginBlock>
    <BlockName> = "N95"
    <Mu_x> = 1
    <Mu_y> = 1
    <H_c> = 0
    <H_cAngle> = 0
    <J_re> = 0
    <J_im> = 0
    <Sigma> = 0
    <d_lam> = 0
    <Phi_h> = 0
    <Phi_hx> = 0
    <Phi_hy> = 0
    <LamType> = 0
    <LamFill> = 1
    <NStrands> = 0
    <WireD> = 0
    <BHPoints> = 8
      0	0
      0.10000000000000001	50
      0.20000000000000001	60
      0.29999999999999999	70
      0.37	100
      0.38	150
      0.40000000000000002	200
      0.41999999999999998	1000
  <EndBlock>
[CircuitProps]  = 2
  <BeginCircuit>
    <CircuitName> = "coil"
    <TotalAmps_re> = 12
    <TotalAmps_im> = 0
    <CircuitType> = 1
  <EndCircuit>
  <BeginCircuit>
    <CircuitName> = "netzero"
    <TotalAmps_re> = 0
    <TotalAmps_im> = 0
    <CircuitType> = 0
  <EndCircuit>
[NumPoints] = 93
0	0	0	0
-12	23	0	0
47	23	0	0
47	-13	0	0
-12	-13	0	0
22	0	0	0
0	8	0	0
0	5.5	0	0
22	8	0	0
2.5	2.5	0	0
19.5	2.5	0	0
25	0	0	0
25	8	0	0
2.5	5.5	0	0
10	2.5	0	0
15	2.5	0	0
9.5	3	0	0
3	3	0	0
15.5	3	0	0
22	3	0	0
15.5	3.1000000000000001	0	0
22	3.1000000000000001	0	0
15.5	3.3000000000000003	0	0
22	3.3000000000000003	0	0
22	3.4000000000000004	0	0
15.5	3.4000000000000004	0	0
15.5	3.6000000000000001	0	0
22	3.6000000000000001	0	0
22	3.7000000000000002	0	0
15.5	3.7000000000000002	0	0
15.5	3.9000000000000004	0	0
22	3.9000000000000004	0	0
22	4	0	0
15.5	4	0	0
9.5	3.1000000000000001	0	0
9.5	3.3000000000000003	0	0
9.5	3.4000000000000004	0	0
9.5	3.6000000000000001	0	0
9.5	3.7000000000000002	0	0
9.5	3.9000000000000004	0	0
9.5	4	0	0
3	3.1000000000000001	0	0
3	3.3000000000000003	0	0
3	3.4000000000000004	0	0
3	3.6000000000000001	0	0
3	3.7000000000000002	0	0
3	3.9000000000000004	0	0
3	4	0	0
10	5.25	0	0
15	5.25	0	0
9.5	4.2000000000000002	0	0
9.5	4.2999999999999998	0	0
3	4.2000000000000002	0	0
3	4.2999999999999998	0	0
15.5	4.2000000000000002	0	0
15.5	4.2999999999999998	0	0
22	4.2000000000000002	0	0
22	4.2999999999999998	0	0
10	5.2000000000000002	0	0
15	5.2000000000000002	0	0
22.5	2.5	0	0
22.5	5.5	0	0
10.15	4.6000000000000005	0	0
10	5.2700000000000005	0	0
15	5.2700000000000005	0	0
4	2.5	0	0
4	5.5	0	0
21	2.5	0	0
21	5.5	0	0
4	5.7000000000000002	0	0
21	5.7000000000000002	0	0
4.5	3	0	0
4.5	3.1000000000000001	0	0
4.5	3.3000000000000003	0	0
4.5	3.4000000000000004	0	0
4.5	3.6000000000000001	0	0
4.5	3.7000000000000002	0	0
4.5	3.9000000000000004	0	0
4.5	4	0	0
4.5	4.2000000000000002	0	0
4.5	4.2999999999999998	0	0
20.5	3	0	0
20.5	3.1000000000000001	0	0
20.5	3.3000000000000003	0	0
20.5	3.4000000000000004	0	0
20.5	3.6000000000000001	0	0
20.5	3.7000000000000002	0	0
20.5	3.9000000000000004	0	0
20.5	4	0	0
20.5	4.2000000000000002	0	0
20.5	4.2999999999999998	0	0
10	5.46	0	0
15	5.46	0	0
[NumSegments] = 73
1	2	-1	1	0	0
2	3	-1	1	0	0
3	4	-1	1	0	0
4	1	-1	1	0	0
0	5	-1	0	0	0
6	7	-1	0	0	0
7	0	-1	0	0	0
6	8	-1	0	0	0
40	39	-1	0	0	0
46	47	-1	0	0	0
38	37	-1	0	0	0
44	45	-1	0	0	0
36	35	-1	0	0	0
42	43	-1	0	0	0
34	16	-1	0	0	0
17	41	-1	0	0	0
30	33	-1	0	0	0
26	29	-1	0	0	0
22	25	-1	0	0	0
18	20	-1	0	0	0
8	12	-1	0	0	0
12	11	-1	0	0	0
11	5	-1	0	0	0
54	55	-1	0	0	0
50	51	-1	0	0	0
52	53	-1	0	0	0
14	65	-1	0	0	0
65	66	-1	0	0	0
66	69	-1	0	0	0
69	70	-1	0	0	0
70	68	-1	0	0	0
68	67	-1	0	0	0
15	10	-1	0	0	0
10	67	-1	0	0	0
64	49	-1	0	0	0
49	59	-1	0	0	0
59	15	-1	0	0	0
63	48	-1	0	0	0
48	58	-1	0	0	0
58	14	-1	0	0	0
55	90	-1	0	0	0
89	90	-1	0	0	0
89	54	-1	0	0	0
33	88	-1	0	0	0
88	87	-1	0	0	0
87	30	-1	0	0	0
29	86	-1	0	0	0
86	85	-1	0	0	0
85	26	-1	0	0	0
25	84	-1	0	0	0
84	83	-1	0	0	0
83	22	-1	0	0	0
20	82	-1	0	0	0
82	81	-1	0	0	0
81	18	-1	0	0	0
80	51	-1	0	0	0
50	79	-1	0	0	0
79	80	-1	0	0	0
78	40	-1	0	0	0
39	77	-1	0	0	0
77	78	-1	0	0	0
76	38	-1	0	0	0
37	75	-1	0	0	0
75	76	-1	0	0	0
74	36	-1	0	0	0
35	73	-1	0	0	0
73	74	-1	0	0	0
72	34	-1	0	0	0
16	71	-1	0	0	0
71	72	-1	0	0	0
64	92	-1	0	0	0
63	91	-1	0	0	0
91	92	-1	0	0	0
[NumArcSegments] = 0
[NumHoles] = 0
[NumBlockLabels] = 13
15.700000000000001	18.199999999999999	1	1	0	0	0	1	0
6.0500000000000007	3.9500000000000002	4	0.040000000000000001	1	0	0	1	0
6	3.6500000000000004	4	0.040000000000000001	1	0	0	1	0
6.0500000000000007	3.3500000000000001	4	0.040000000000000001	1	0	0	1	0
6.0500000000000007	3.0500000000000003	4	0.040000000000000001	1	0	0	1	0
18.100000000000001	3.9500000000000002	4	0.040000000000000001	1	0	0	-1	0
18.100000000000001	3.6500000000000004	4	0.040000000000000001	1	0	0	-1	0
18.150000000000002	3.3500000000000001	4	0.040000000000000001	1	0	0	-1	0
18.150000000000002	3.0500000000000003	4	0.040000000000000001	1	0	0	-1	0
8.75	4.9500000000000002	1	0.050000000000000003	0	0	0	1	0
11.100000000000001	6.5	5	0.10000000000000001	2	0	0	1	0
5.9500000000000002	4.25	4	0.040000000000000001	1	0	0	1	0
17.600000000000001	4.25	4	0.040000000000000001	1	0	0	-1	0
