[Format]      =  4.0
[Frequency]   =  200000
[Precision]   =  1e-008
[MinAngle]    =  30
[Depth]       =  20
[LengthUnits] =  millimeters
[ProblemType] =  planar
[Coordinates] =  cartesian
[ACSolver]    =  0
[PrevSoln]    =  ""
[Comment]     =  "Add comments here."
[PointProps]   = 0
[BdryProps]   = 2
  <BeginBdry>
    <BdryName> = "A=0"
    <BdryType> = 0
    <A_0> = 0
    <A_1> = 0
    <A_2> = 0
    <Phi> = 0
    <c0> = 0
    <c0i> = 0
    <c1> = 0
    <c1i> = 0
    <Mu_ssd> = 0
    <Sigma_ssd> = 0
  <EndBdry>
  <BeginBdry>
    <BdryName> = "skin_depth"
    <BdryType> = 1
    <A_0> = 0
    <A_1> = 0
    <A_2> = 0
    <Phi> = 0
    <c0> = 0
    <c0i> = 0
    <c1> = 0
    <c1i> = 0
    <Mu_ssd> = 1
    <Sigma_ssd> = 1
  <EndBdry>
[BlockProps]  = 4
  <BeginBlock>
    <BlockName> = "Air"
    <Mu_x> = 1
    <Mu_y> = 1
    <H_c> = 0
    <H_cAngle> = 0
    <J_re> = 0
    <J_im> = 0
    <Sigma> = 0
    <d_lam> = 0
    <Phi_h> = 0
    <Phi_hx> = 0
    <Phi_hy> = 0
    <LamType> = 0
    <LamFill> = 1
    <NStrands> = 0
    <WireD> = 0
    <BHPoints> = 0
  <EndBlock>
  <BeginBlock>
    <BlockName> = "18 AWG"
    <Mu_x> = 1
    <Mu_y> = 1
    <H_c> = 0
    <H_cAngle> = 0
    <J_re> = 0
    <J_im> = 0
    <Sigma> = 58
    <d_lam> = 0
    <Phi_h> = 0
    <Phi_hx> = 0
    <Phi_hy> = 0
    <LamType> = 6
    <LamFill> = 1
    <NStrands> = 1
    <WireD> = 1.0239652968433499
    <BHPoints> = 0
  <EndBlock>
  <BeginBlock>
    <BlockName> = "3C92"
    <Mu_x> = 5000
    <Mu_y> = 5000
    <H_c> = 0
    <H_cAngle> = 0
    <J_re> = 0
    <J_im> = 0
    <Sigma> = 1.9999999999999999e-007
    <d_lam> = 0
    <Phi_h> = 0
    <Phi_hx> = 0
    <Phi_hy> = 0
    <LamType> = 0
    <LamFill> = 1
    <NStrands> = 0
    <WireD> = 0
    <BHPoints> = 5
      0	0
      0.10000000000000001	25
      0.25	50
      0.35999999999999999	150
      0.40000000000000002	250
  <EndBlock>
  <BeginBlock>
    <BlockName> = "Copper"
    <Mu_x> = 1
    <Mu_y> = 1
    <H_c> = 0
    <H_cAngle> = 0
    <J_re> = 0
    <J_im> = 0
    <Sigma> = 58
    <d_lam> = 0
    <Phi_h> = 0
    <Phi_hx> = 0
    <Phi_hy> = 0
    <LamType> = 0
    <LamFill> = 1
    <NStrands> = 0
    <WireD> = 0
    <BHPoints> = 0
  <EndBlock>
[CircuitProps]  = 2
  <BeginCircuit>
    <CircuitName> = "coil"
    <TotalAmps_re> = 13
    <TotalAmps_im> = 0
    <CircuitType> = 1
  <EndCircuit>
  <BeginCircuit>
    <CircuitName> = "netzero"
    <TotalAmps_re> = 0
    <TotalAmps_im> = 0
    <CircuitType> = 0
  <EndCircuit>
[NumPoints] = 67
0	0	0	0
32	12	0	0
32	0	0	0
3	3	0	0
29	3	0	0
10	3	0	0
22	3	0	0
-12	23	0	0
47	23	0	0
47	-13	0	0
-12	-13	0	0
9	3.5	0	0
9	3.5750000000000002	0	0
9	3.8250000000000002	0	0
9	3.9000000000000004	0	0
9	4.2250000000000005	0	0
9	4.4750000000000005	0	0
9	4.5499999999999998	0	0
9	4.1500000000000004	0	0
4	3.5	0	0
4	3.5750000000000002	0	0
4	3.8250000000000002	0	0
4	3.9000000000000004	0	0
4	4.1500000000000004	0	0
4	4.2250000000000005	0	0
4	4.4750000000000005	0	0
4	4.5499999999999998	0	0
23	3.5	0	0
23	3.5750000000000002	0	0
28	3.5	0	0
28	3.5750000000000002	0	0
23	3.8250000000000002	0	0
23	3.9000000000000004	0	0
23	4.1500000000000004	0	0
23	4.2250000000000005	0	0
23	4.4750000000000005	0	0
23	4.5499999999999998	0	0
28	3.8250000000000002	0	0
28	3.9000000000000004	0	0
28	4.1500000000000004	0	0
28	4.2250000000000005	0	0
28	4.4750000000000005	0	0
28	4.5499999999999998	0	0
13	3	0	0
19	3	0	0
0	9	0	0
32	9	0	0
3	6	0	0
29	6	0	0
13	5.75	0	0
19	5.75	0	0
12	3.5	0	0
12	3.5750000000000002	0	0
12	3.8250000000000002	0	0
12	3.9000000000000004	0	0
12	4.1500000000000004	0	0
12	4.2250000000000005	0	0
12	4.4750000000000005	0	0
12	4.5499999999999998	0	0
20	3.5	0	0
20	3.5750000000000002	0	0
20	3.8250000000000002	0	0
20	3.9000000000000004	0	0
20	4.1500000000000004	0	0
20	4.2250000000000005	0	0
20	4.5499999999999998	0	0
20	4.4750000000000005	0	0
[NumSegments] = 66
0	2	-1	0	0	0
5	3	-1	0	0	0
4	6	-1	0	0	0
7	8	-1	1	0	0
8	9	-1	1	0	0
9	10	-1	1	0	0
10	7	-1	1	0	0
26	17	-1	0	0	0
16	25	-1	0	0	0
25	26	-1	0	0	0
24	23	-1	0	0	0
24	15	-1	0	0	0
18	23	-1	0	0	0
22	14	-1	0	0	0
13	21	-1	0	0	0
21	22	-1	0	0	0
20	12	-1	0	0	0
11	19	-1	0	0	0
19	20	-1	0	0	0
36	42	-1	0	0	0
42	41	-1	0	0	0
41	35	-1	0	0	0
34	40	-1	0	0	0
40	39	-1	0	0	0
39	33	-1	0	0	0
32	38	-1	0	0	0
38	37	-1	0	0	0
37	31	-1	0	0	0
28	30	-1	0	0	0
30	29	-1	0	0	0
29	27	-1	0	0	0
5	43	-1	0	0	0
44	6	-1	0	0	0
45	0	-1	0	0	0
46	2	-1	0	0	0
45	46	-1	0	0	0
47	3	-1	0	0	0
48	4	-1	0	0	0
47	48	-1	0	0	0
49	50	-1	0	0	0
50	44	-1	0	0	0
49	43	-1	0	0	0
17	58	-1	0	0	0
57	58	-1	0	0	0
57	16	-1	0	0	0
15	56	-1	0	0	0
56	55	-1	0	0	0
55	18	-1	0	0	0
14	54	-1	0	0	0
54	53	-1	0	0	0
53	13	-1	0	0	0
12	52	-1	0	0	0
52	51	-1	0	0	0
51	11	-1	0	0	0
65	36	-1	0	0	0
65	66	-1	0	0	0
66	35	-1	0	0	0
34	64	-1	0	0	0
63	33	-1	0	0	0
64	63	-1	0	0	0
62	32	-1	0	0	0
31	61	-1	0	0	0
61	62	-1	0	0	0
60	28	-1	0	0	0
60	59	-1	0	0	0
59	27	-1	0	0	0
[NumArcSegments] = 0
[NumHoles] = 0
[NumBlockLabels] = 11
15.700000000000001	18.199999999999999	1	1	0	0	0	1	0
6.5	4.5250000000000004	4	0.01	1	0	0	1	0
6.5	4.1749999999999998	4	0.01	1	0	0	1	0
6.5	3.8500000000000001	4	0.01	1	0	0	1	0
6.5	3.5500000000000003	4	0.01	1	0	0	1	0
25.525000000000002	4.5	4	0.01	1	0	0	-1	0
25.525000000000002	4.2000000000000002	4	0.01	1	0	0	-1	0
25.550000000000001	3.8500000000000001	4	0.01	1	0	0	-1	0
25.550000000000001	3.5500000000000003	4	0.01	1	0	0	-1	0
15.75	7.5	3	0.20000000000000001	2	0	0	1	0
12.300000000000001	5.6000000000000005	1	0.050000000000000003	0	0	0	1	0
