[Format]      =  4.0
[Frequency]   =  200000
[Precision]   =  1e-008
[MinAngle]    =  30
[Depth]       =  12
[LengthUnits] =  millimeters
[ProblemType] =  planar
[Coordinates] =  cartesian
[ACSolver]    =  0
[PrevSoln]    =  ""
[Comment]     =  "Add comments here."
[PointProps]   = 0
[BdryProps]   = 2
  <BeginBdry>
    <BdryName> = "A=0"
    <BdryType> = 0
    <A_0> = 0
    <A_1> = 0
    <A_2> = 0
    <Phi> = 0
    <c0> = 0
    <c0i> = 0
    <c1> = 0
    <c1i> = 0
    <Mu_ssd> = 0
    <Sigma_ssd> = 0
  <EndBdry>
  <BeginBdry>
    <BdryName> = "skin_depth"
    <BdryType> = 1
    <A_0> = 0
    <A_1> = 0
    <A_2> = 0
    <Phi> = 0
    <c0> = 0
    <c0i> = 0
    <c1> = 0
    <c1i> = 0
    <Mu_ssd> = 1
    <Sigma_ssd> = 1
  <EndBdry>
[BlockProps]  = 4
  <BeginBlock>
    <BlockName> = "Air"
    <Mu_x> = 1
    <Mu_y> = 1
    <H_c> = 0
    <H_cAngle> = 0
    <J_re> = 0
    <J_im> = 0
    <Sigma> = 0
    <d_lam> = 0
    <Phi_h> = 0
    <Phi_hx> = 0
    <Phi_hy> = 0
    <LamType> = 0
    <LamFill> = 1
    <NStrands> = 0
    <WireD> = 0
    <BHPoints> = 0
  <EndBlock>
  <BeginBlock>
    <BlockName> = "18 AWG"
    <Mu_x> = 1
    <Mu_y> = 1
    <H_c> = 0
    <H_cAngle> = 0
    <J_re> = 0
    <J_im> = 0
    <Sigma> = 58
    <d_lam> = 0
    <Phi_h> = 0
    <Phi_hx> = 0
    <Phi_hy> = 0
    <LamType> = 6
    <LamFill> = 1
    <NStrands> = 1
    <WireD> = 1.0239652968433499
    <BHPoints> = 0
  <EndBlock>
  <BeginBlock>
    <BlockName> = "3C92"
    <Mu_x> = 5000
    <Mu_y> = 5000
    <H_c> = 0
    <H_cAngle> = 0
    <J_re> = 0
    <J_im> = 0
    <Sigma> = 1.9999999999999999e-007
    <d_lam> = 0
    <Phi_h> = 0
    <Phi_hx> = 0
    <Phi_hy> = 0
    <LamType> = 0
    <LamFill> = 1
    <NStrands> = 0
    <WireD> = 0
    <BHPoints> = 5
      0	0
      0.10000000000000001	25
      0.25	50
      0.35999999999999999	150
      0.40000000000000002	250
  <EndBlock>
  <BeginBlock>
    <BlockName> = "Copper"
    <Mu_x> = 1
    <Mu_y> = 1
    <H_c> = 0
    <H_cAngle> = 0
    <J_re> = 0
    <J_im> = 0
    <Sigma> = 58
    <d_lam> = 0
    <Phi_h> = 0
    <Phi_hx> = 0
    <Phi_hy> = 0
    <LamType> = 0
    <LamFill> = 1
    <NStrands> = 0
    <WireD> = 0
    <BHPoints> = 0
  <EndBlock>
[CircuitProps]  = 2
  <BeginCircuit>
    <CircuitName> = "coil"
    <TotalAmps_re> = 1
    <TotalAmps_im> = 0
    <CircuitType> = 1
  <EndCircuit>
  <BeginCircuit>
    <CircuitName> = "netzero"
    <TotalAmps_re> = 0
    <TotalAmps_im> = 0
    <CircuitType> = 0
  <EndCircuit>
[NumPoints] = 52
0	0	0	0
0	12	0	0
32	12	0	0
32	0	0	0
3	3	0	0
29	3	0	0
3	9	0	0
29	9	0	0
10	3	0	0
22	3	0	0
10	9	0	0
22	9	0	0
-12	23	0	0
47	23	0	0
47	-13	0	0
-12	-13	0	0
10	5.8500000000000005	0	0
22	6.1500000000000004	0	0
22	5.8500000000000005	0	0
10	6.1500000000000004	0	0
9	3.5	0	0
9	3.5750000000000002	0	0
9	3.8250000000000002	0	0
9	3.9000000000000004	0	0
9	4.2250000000000005	0	0
9	4.4750000000000005	0	0
9	4.5499999999999998	0	0
9	4.1500000000000004	0	0
4	3.5	0	0
4	3.5750000000000002	0	0
4	3.8250000000000002	0	0
4	3.9000000000000004	0	0
4	4.1500000000000004	0	0
4	4.2250000000000005	0	0
4	4.4750000000000005	0	0
4	4.5499999999999998	0	0
23	3.5	0	0
23	3.5750000000000002	0	0
28	3.5	0	0
28	3.5750000000000002	0	0
23	3.8250000000000002	0	0
23	3.9000000000000004	0	0
23	4.1500000000000004	0	0
23	4.2250000000000005	0	0
23	4.4750000000000005	0	0
23	4.5499999999999998	0	0
28	3.8250000000000002	0	0
28	3.9000000000000004	0	0
28	4.1500000000000004	0	0
28	4.2250000000000005	0	0
28	4.4750000000000005	0	0
28	4.5499999999999998	0	0
[NumSegments] = 52
1	2	-1	0	0	0
2	3	-1	0	0	0
0	1	-1	0	0	0
0	3	-1	0	0	0
6	10	-1	0	0	0
6	4	-1	0	0	0
8	4	-1	0	0	0
11	7	-1	0	0	0
7	5	-1	0	0	0
5	9	-1	0	0	0
12	13	-1	1	0	0
13	14	-1	1	0	0
14	15	-1	1	0	0
15	12	-1	1	0	0
17	11	-1	0	0	0
18	9	-1	0	0	0
16	18	-1	0	0	0
16	8	-1	0	0	0
10	19	-1	0	0	0
19	17	-1	0	0	0
35	26	-1	0	0	0
26	25	-1	0	0	0
25	34	-1	0	0	0
34	35	-1	0	0	0
33	32	-1	0	0	0
33	24	-1	0	0	0
24	27	-1	0	0	0
27	32	-1	0	0	0
31	23	-1	0	0	0
23	22	-1	0	0	0
22	30	-1	0	0	0
30	31	-1	0	0	0
29	21	-1	0	0	0
21	20	-1	0	0	0
20	28	-1	0	0	0
28	29	-1	0	0	0
45	51	-1	0	0	0
51	50	-1	0	0	0
50	44	-1	0	0	0
44	45	-1	0	0	0
43	49	-1	0	0	0
49	48	-1	0	0	0
48	42	-1	0	0	0
42	43	-1	0	0	0
41	47	-1	0	0	0
47	46	-1	0	0	0
46	40	-1	0	0	0
40	41	-1	0	0	0
37	39	-1	0	0	0
39	38	-1	0	0	0
38	36	-1	0	0	0
36	37	-1	0	0	0
[NumArcSegments] = 0
[NumHoles] = 0
[NumBlockLabels] = 11
15.700000000000001	18.199999999999999	1	0.5	0	0	0	1	0
15.9	9.4000000000000004	3	0.10000000000000001	2	0	0	1	0
16.300000000000001	6	1	0.10000000000000001	0	0	0	1	0
6.5	4.5250000000000004	4	0.01	1	0	0	1	0
6.5	4.1749999999999998	4	0.01	1	0	0	1	0
6.5	3.8500000000000001	4	0.01	1	0	0	1	0
6.5	3.5500000000000003	4	0.01	1	0	0	1	0
25.525000000000002	4.5	4	0.01	1	0	0	-1	0
25.525000000000002	4.2000000000000002	4	0.01	1	0	0	-1	0
25.550000000000001	3.8500000000000001	4	0.01	1	0	0	-1	0
25.550000000000001	3.5500000000000003	4	0.01	1	0	0	-1	0
