[Format]      =  4.0
[Frequency]   =  475000
[Precision]   =  1e-008
[MinAngle]    =  30
[Depth]       =  18
[LengthUnits] =  millimeters
[ProblemType] =  planar
[Coordinates] =  cartesian
[ACSolver]    =  0
[PrevSoln]    =  ""
[Comment]     =  "Add comments here."
[PointProps]   = 0
[BdryProps]   = 2
  <BeginBdry>
    <BdryName> = "A=0"
    <BdryType> = 0
    <A_0> = 0
    <A_1> = 0
    <A_2> = 0
    <Phi> = 0
    <c0> = 0
    <c0i> = 0
    <c1> = 0
    <c1i> = 0
    <Mu_ssd> = 0
    <Sigma_ssd> = 0
  <EndBdry>
  <BeginBdry>
    <BdryName> = "skin_depth"
    <BdryType> = 1
    <A_0> = 0
    <A_1> = 0
    <A_2> = 0
    <Phi> = 0
    <c0> = 0
    <c0i> = 0
    <c1> = 0
    <c1i> = 0
    <Mu_ssd> = 1
    <Sigma_ssd> = 1
  <EndBdry>
[BlockProps]  = 6
  <BeginBlock>
    <BlockName> = "Air"
    <Mu_x> = 1
    <Mu_y> = 1
    <H_c> = 0
    <H_cAngle> = 0
    <J_re> = 0
    <J_im> = 0
    <Sigma> = 0
    <d_lam> = 0
    <Phi_h> = 0
    <Phi_hx> = 0
    <Phi_hy> = 0
    <LamType> = 0
    <LamFill> = 1
    <NStrands> = 0
    <WireD> = 0
    <BHPoints> = 0
  <EndBlock>
  <BeginBlock>
    <BlockName> = "18 AWG"
    <Mu_x> = 1
    <Mu_y> = 1
    <H_c> = 0
    <H_cAngle> = 0
    <J_re> = 0
    <J_im> = 0
    <Sigma> = 58
    <d_lam> = 0
    <Phi_h> = 0
    <Phi_hx> = 0
    <Phi_hy> = 0
    <LamType> = 6
    <LamFill> = 1
    <NStrands> = 1
    <WireD> = 1.0239652968433499
    <BHPoints> = 0
  <EndBlock>
  <BeginBlock>
    <BlockName> = "3C92"
    <Mu_x> = 5000
    <Mu_y> = 5000
    <H_c> = 0
    <H_cAngle> = 0
    <J_re> = 0
    <J_im> = 0
    <Sigma> = 0
    <d_lam> = 0
    <Phi_h> = 0
    <Phi_hx> = 0
    <Phi_hy> = 0
    <LamType> = 0
    <LamFill> = 1
    <NStrands> = 0
    <WireD> = 0
    <BHPoints> = 5
      0	0
      0.25	25
      0.34999999999999998	50
      0.40999999999999998	400
      0.46000000000000002	1200
  <EndBlock>
  <BeginBlock>
    <BlockName> = "Copper"
    <Mu_x> = 1
    <Mu_y> = 1
    <H_c> = 0
    <H_cAngle> = 0
    <J_re> = 0
    <J_im> = 0
    <Sigma> = 58
    <d_lam> = 0
    <Phi_h> = 0
    <Phi_hx> = 0
    <Phi_hy> = 0
    <LamType> = 0
    <LamFill> = 1
    <NStrands> = 0
    <WireD> = 0
    <BHPoints> = 0
  <EndBlock>
  <BeginBlock>
    <BlockName> = "N87"
    <Mu_x> = 1
    <Mu_y> = 1
    <H_c> = 0
    <H_cAngle> = 0
    <J_re> = 0
    <J_im> = 0
    <Sigma> = 0
    <d_lam> = 0
    <Phi_h> = 0
    <Phi_hx> = 0
    <Phi_hy> = 0
    <LamType> = 0
    <LamFill> = 1
    <NStrands> = 0
    <WireD> = 0
    <BHPoints> = 7
      0	0
      0.10000000000000001	25
      0.20000000000000001	50
      0.29999999999999999	75
      0.34999999999999998	120
      0.37	400
      0.38	800
  <EndBlock>
  <BeginBlock>
    <BlockName> = "3C95"
    <Mu_x> = 1
    <Mu_y> = 1
    <H_c> = 0
    <H_cAngle> = 0
    <J_re> = 0
    <J_im> = 0
    <Sigma> = 0
    <d_lam> = 0
    <Phi_h> = 0
    <Phi_hx> = 0
    <Phi_hy> = 0
    <LamType> = 0
    <LamFill> = 1
    <NStrands> = 0
    <WireD> = 0
    <BHPoints> = 5
      0	0
      0.25	25
      0.34999999999999998	50
      0.39000000000000001	150
      0.40000000000000002	250
  <EndBlock>
[CircuitProps]  = 2
  <BeginCircuit>
    <CircuitName> = "coil"
    <TotalAmps_re> = 5
    <TotalAmps_im> = 0
    <CircuitType> = 1
  <EndCircuit>
  <BeginCircuit>
    <CircuitName> = "netzero"
    <TotalAmps_re> = 0
    <TotalAmps_im> = 0
    <CircuitType> = 0
  <EndCircuit>
[NumPoints] = 62
0	0	0	0
-12	23	0	0
47	23	0	0
47	-13	0	0
-12	-13	0	0
22	0	0	0
0	8	0	0
0	5.5	0	0
22	8	0	0
2.5	2.5	0	0
19.5	2.5	0	0
25	0	0	0
25	8	0	0
2.5	5.5	0	0
10	2.5	0	0
15	2.5	0	0
9.5	3	0	0
3	3	0	0
15.5	3	0	0
22	3	0	0
15.5	3.1000000000000001	0	0
22	3.1000000000000001	0	0
15.5	3.3000000000000003	0	0
22	3.3000000000000003	0	0
22	3.4000000000000004	0	0
15.5	3.4000000000000004	0	0
15.5	3.6000000000000001	0	0
22	3.6000000000000001	0	0
22	3.7000000000000002	0	0
15.5	3.7000000000000002	0	0
15.5	3.9000000000000004	0	0
22	3.9000000000000004	0	0
22	4	0	0
15.5	4	0	0
9.5	3.1000000000000001	0	0
9.5	3.3000000000000003	0	0
9.5	3.4000000000000004	0	0
9.5	3.6000000000000001	0	0
9.5	3.7000000000000002	0	0
9.5	3.9000000000000004	0	0
9.5	4	0	0
3	3.1000000000000001	0	0
3	3.3000000000000003	0	0
3	3.4000000000000004	0	0
3	3.6000000000000001	0	0
3	3.7000000000000002	0	0
3	3.9000000000000004	0	0
3	4	0	0
10	5.25	0	0
15	5.25	0	0
9.5	4.2000000000000002	0	0
9.5	4.2999999999999998	0	0
3	4.2000000000000002	0	0
3	4.2999999999999998	0	0
15.5	4.2000000000000002	0	0
15.5	4.2999999999999998	0	0
22	4.2000000000000002	0	0
22	4.2999999999999998	0	0
10	5.2000000000000002	0	0
15	5.2000000000000002	0	0
22.5	2.5	0	0
22.5	5.5	0	0
[NumSegments] = 62
1	2	-1	1	0	0
2	3	-1	1	0	0
3	4	-1	1	0	0
4	1	-1	1	0	0
0	5	-1	0	0	0
6	7	-1	0	0	0
7	0	-1	0	0	0
6	8	-1	0	0	0
9	14	-1	0	0	0
15	10	-1	0	0	0
47	40	-1	0	0	0
40	39	-1	0	0	0
39	46	-1	0	0	0
46	47	-1	0	0	0
45	38	-1	0	0	0
38	37	-1	0	0	0
37	44	-1	0	0	0
44	45	-1	0	0	0
43	36	-1	0	0	0
36	35	-1	0	0	0
35	42	-1	0	0	0
42	43	-1	0	0	0
41	34	-1	0	0	0
34	16	-1	0	0	0
16	17	-1	0	0	0
17	41	-1	0	0	0
33	32	-1	0	0	0
32	31	-1	0	0	0
31	30	-1	0	0	0
30	33	-1	0	0	0
29	28	-1	0	0	0
28	27	-1	0	0	0
27	26	-1	0	0	0
26	29	-1	0	0	0
25	24	-1	0	0	0
24	23	-1	0	0	0
23	22	-1	0	0	0
22	25	-1	0	0	0
20	21	-1	0	0	0
21	19	-1	0	0	0
19	18	-1	0	0	0
18	20	-1	0	0	0
14	58	-1	0	0	0
59	15	-1	0	0	0
58	48	-1	0	0	0
48	49	-1	0	0	0
49	59	-1	0	0	0
8	12	-1	0	0	0
12	11	-1	0	0	0
11	5	-1	0	0	0
13	9	-1	0	0	0
13	61	-1	0	0	0
61	60	-1	0	0	0
60	10	-1	0	0	0
55	57	-1	0	0	0
56	57	-1	0	0	0
56	54	-1	0	0	0
54	55	-1	0	0	0
53	51	-1	0	0	0
50	51	-1	0	0	0
52	53	-1	0	0	0
52	50	-1	0	0	0
[NumArcSegments] = 0
[NumHoles] = 0
[NumBlockLabels] = 13
15.700000000000001	18.199999999999999	1	1	0	0	0	1	0
6.0500000000000007	3.9500000000000002	4	0.040000000000000001	1	0	0	1	0
6	3.6500000000000004	4	0.040000000000000001	1	0	0	1	0
6.0500000000000007	3.3500000000000001	4	0.040000000000000001	1	0	0	1	0
6.0500000000000007	3.0500000000000003	4	0.040000000000000001	1	0	0	1	0
18.100000000000001	3.9500000000000002	4	0.040000000000000001	1	0	0	-1	0
18.100000000000001	3.6500000000000004	4	0.040000000000000001	1	0	0	-1	0
18.150000000000002	3.3500000000000001	4	0.040000000000000001	1	0	0	-1	0
18.150000000000002	3.0500000000000003	4	0.040000000000000001	1	0	0	-1	0
8.75	4.9500000000000002	1	0.050000000000000003	0	0	0	1	0
11.100000000000001	6.5	3	0.10000000000000001	2	0	0	1	0
5.9500000000000002	4.25	4	0.040000000000000001	1	0	0	1	0
17.600000000000001	4.25	4	0.040000000000000001	1	0	0	-1	0
